<?xml version="1.0" encoding="UTF-8"?>

<!-- generated on 2022-07-04 13:10:52 by Eclipse SUMO netedit Version v1_13_0+1391-e3705e540b5
-->

<routes xmlns:xsi="http://www.w3.org/2001/XMLSchema-instance" xsi:noNamespaceSchemaLocation="http://sumo.dlr.de/xsd/routes_file.xsd">
    <!-- Vehicles, persons and containers (sorted by depart) -->
       <!-- <flow id="f_0" begin="0.00" from="e12" to="e56" via="e23 e35" end="3600.00" vehsPerHour="1800.00"/> -->

    <vType id="KraussPassenger" length="5" minGap="1" carFollowModel="Krauss" tau="1.0"   sigma="0.2"/>
    <vType id="IDMPassenger" length="5" minGap="1" carFollowModel="Krauss" tau="1.0"   sigma="0.2" />

    <flow id="flow_0" begin="0.00" departLane="random" departSpeed="max" type="KraussPassenger"
          color="white" from="e12" to="e35" via="e23 e63"  end="3600.00" probability="0.32" departPos="base" />
<!--    <flow id="flow_1" type= "KraussPassenger" begin="0.00" departLane="random" departSpeed="max"-->
<!--          color="white" from="e12" to="e35" end="3600.00" probability="0.3" departPos="base"/>-->
    <flow id="flow_2" type= "KraussPassenger" begin="0.00" departLane="random" departSpeed="max"
          color="white" from="e12" to="e35"  via="e23 e63" end="3600.00" probability="0.32"  departPos="base"/>

    <vehicle id="1" type="KraussPassenger" depart="0" color="white" departPos="20" >
      <route edges="e12 e23 e63 e35"/>
    </vehicle>

<vehicle id="2" type="KraussPassenger" depart="0" color="white" departPos="40" >
      <route edges="e12 e23 e63 e35"/>
    </vehicle>

<!--<vehicle id="3" type="KraussPassenger" depart="0" color="white" departPos="60" >-->
<!--      <route edges="e12 e23 e35"/>-->
<!--    </vehicle>-->
<!--    -->
<vehicle id="4" type="KraussPassenger" depart="0" color="white" departPos="80" >
      <route edges="e12 e23 e63 e35"/>
    </vehicle>

<!--<vehicle id="5" type="KraussPassenger" depart="0" color="white" departPos="100" >-->
<!--      <route edges="e12 e23 e35"/>-->
<!--    </vehicle>-->

<!--<vehicle id="6" type="KraussPassenger" depart="0" color="white" departPos="120" >-->
<!--      <route edges="e12 e23 e35"/>-->
<!--    </vehicle>-->

<vehicle id="3126" type="KraussPassenger" depart="0" color="white" departPos="140" >
      <route edges="e12 e23 e63 e35"/>
    </vehicle>


<vehicle id="1346" type="KraussPassenger" depart="0" color="white" departPos="160" >
      <route edges="e12 e23 e63 e35"/>
    </vehicle>


<!--<vehicle id="632112" type="KraussPassenger" depart="0" color="white" departPos="180" >-->
<!--      <route edges="e12 e23 e35"/>-->
<!--    </vehicle>-->


<vehicle id="31216" type="KraussPassenger" depart="0" color="white" departPos="200" >
      <route edges="e12 e23 e63 e35"/>
    </vehicle>

<!--<vehicle id="54326" type="KraussPassenger" depart="0" color="white" departPos="240" >-->
<!--      <route edges="e12 e23 e35"/>-->
<!--    </vehicle>-->

<vehicle id="12316" type="KraussPassenger" depart="0" color="white" departPos="260" >
      <route edges="e12 e23 e63 e35"/>
    </vehicle>
    <route id="route_ramp" edges="e42 e23 e63 e35" />


</routes>
